# ========================
# Tonto generated CIF file
# ========================

# NOTE: This is an incomplete CIF file
# Manually edit it to pass checkCIF

data_4-urea_Tonto_HAR_explicit

_audit_creation_date                2023-8-14
_audit_creation_method              'Tonto 23.08.12 github v. 0eeb8b93'

# ============
# QCr software
# ============

_QCr_software                       'Tonto'
_QCr_software_version               '23.08.12 v. 0eeb8b93'
_QCr_software_platform              'Linux-6.2.0-27-generic'
_QCr_software_build_date            '2023-08-12 15:01'
_QCr_software_website               'https://github.com/dylan-jayatilaka/tonto'

# ===========
# Publication
# ===========

_publ_contact_author
;
    Prof. Dr. Sir Tonto Magnifico
;
_publ_contact_author_email          'tonto.magnifico@gmail.com'
_publ_contact_author_phone          '+61 8 6488 3138'
_publ_requested_journal             'IUCrJ'
_publ_section_title
;
   'Hirshfeld atom-refinement (HAR) for 4-urea_Tonto_HAR_explicit'
   'X-ray wavefunction refinement (XWR) for 4-urea_Tonto_HAR_explicit'
   Tonto Magnifico, IUCrJ (XXXX)
;

loop_
    _publ_author_name
    'Tonto Magnifico'

_publ_author_address
;
    Prof. Dr. Sir Tonto Magnifico
    1 El Camino Ciberespacio
    Tierra Austral del Espiritu Santo
;

# ========
# Chemical
# ========

_chemical_name_common               4-urea_Tonto_HAR_explicit
_chemical_formula_sum               'C11 H44 N22 O11'
_chemical_formula_moiety            'C11 H44 N22 O11'
_chemical_formula_weight            660.6141
_chemical_compound_source           'see text'
_chemical_absolute_configuration    unk

# =======
# Crystal
# =======

_exptl_crystal_description          ?
_exptl_crystal_colour               ?
_exptl_crystal_size_max             ?
_exptl_crystal_size_mid             ?
_exptl_crystal_size_min             ?
_exptl_crystal_density_diffrn       ?

# ==============
# Absortion data
# ==============

_exptl_absorpt_coefficient_mu       ?
_exptl_absorpt_correction_type      'none'
_exptl_absorpt_process_details      ?
_exptl_absorpt_correction_T_min     ?
_exptl_absorpt_correction_T_max     ?

# ========
# Symmetry
# ========

_symmetry_cell_setting              Tetragonal
_symmetry_space_group_name_H-M      'p -4 21 m'
_symmetry_space_group_name_Hall     'p -4 2ab'
_symmetry_Int_Tables_number         '113'

loop_
    _symmetry_equiv_pos_as_xyz
'+x, +y, +z'
'+y, -x, -z'
'+x+1/2, -y+1/2, -z'
'-x, -y, +z'
'+y+1/2, +x+1/2, +z'
'-y, +x, -z'
'-x+1/2, +y+1/2, -z'
'-y+1/2, -x+1/2, +z'

# =========
# Unit cell
# =========

_cell_measurement_temperature  ?
_cell_measurement_reflns_used  ?
_cell_measurement_theta_min    ?
_cell_measurement_theta_max    ?

_cell_length_a                   5.578000(0)
_cell_length_b                   5.578000(0)
_cell_length_c                   4.686000(0)
_cell_angle_alpha               90.000000(0)
_cell_angle_beta                90.000000(0)
_cell_angle_gamma               90.000000(0)
_cell_volume                   145.800598(0)

_cell_formula_units_Z               0.181818

# ======================
# Fractional coordinates
# ======================

loop_
_atom_site_label
_atom_site_type_symbol
_atom_site_fract_x
_atom_site_fract_y
_atom_site_fract_z
_atom_site_U_iso_or_equiv
_atom_site_adp_type
_atom_site_occupancy
_atom_site_disorder_group
    O  O   0.000000(0)  -0.500000(0)  -0.59644(5)  0.015350  Uani  1.000000  0
   N1  N  -0.14490(4)   -0.64490(4)   -0.17834(6)  0.022603  Uani  1.000000  0
    C  C   0.000000(0)  -0.500000(0)  -0.32809(6)  0.012297  Uani  1.000000  0
  H1A  H  -0.1384(18)   -0.6384(18)    0.027(4)    0.032000  Uani  1.000000  0
  H1B  H  -0.2430(15)   -0.7430(15)   -0.277(3)    0.032000  Uani  1.000000  0

# ==================================
# Precise cartesian axis system ADPs
# ==================================

# . These precise data use non-standard CIF tags
# . Non-standard tags shadow standard tags to avoid duplication
# . Keep these for a refinement restart
# . Better yet, use the refined cartesian parameters

loop_
_atom_site_Cryst_ADP2_U_label
_atom_site_Cryst_ADP2_U_11
_atom_site_Cryst_ADP2_U_22
_atom_site_Cryst_ADP2_U_33
_atom_site_Cryst_ADP2_U_12
_atom_site_Cryst_ADP2_U_13
_atom_site_Cryst_ADP2_U_23
_atom_site_Cryst_ADP2_U_11_esu
_atom_site_Cryst_ADP2_U_22_esu
_atom_site_Cryst_ADP2_U_33_esu
_atom_site_Cryst_ADP2_U_12_esu
_atom_site_Cryst_ADP2_U_13_esu
_atom_site_Cryst_ADP2_U_23_esu
    O  0.019770  0.019770  0.006510   0.002130   0.000000   0.000000
       0.000070  0.000070  0.000050   0.000100   0.000000   0.000000
   N1  0.029150  0.029150  0.009510  -0.015400   0.000080   0.000080
       0.000100  0.000100  0.000060   0.000110   0.000040   0.000040
    C  0.014960  0.014960  0.006970   0.000030   0.000000   0.000000
       0.000060  0.000060  0.000060   0.000090   0.000000   0.000000
  H1A  0.032000  0.032000  0.032000   0.000000   0.000000   0.000000
       0.000000  0.000000  0.000000   0.000000   0.000000   0.000000
  H1B  0.032000  0.032000  0.032000   0.000000   0.000000   0.000000
       0.000000  0.000000  0.000000   0.000000   0.000000   0.000000

# ====
# ADPs
# ====

loop_
_atom_site_aniso_label
_atom_site_aniso_U_11
_atom_site_aniso_U_22
_atom_site_aniso_U_33
_atom_site_aniso_U_12
_atom_site_aniso_U_13
_atom_site_aniso_U_23
    O  0.01977(7)   0.01977(7)   0.00651(5)    0.00213(10)   0.00000000(0)   0.00000000(0)
   N1  0.02915(10)  0.02915(10)  0.00951(6)   -0.01540(11)   0.00008(4)      0.00008(4)
    C  0.01496(6)   0.01496(6)   0.00697(6)    0.00003(9)    0.00000000(0)   0.00000000(0)
  H1A  0.032000(0)  0.032000(0)  0.032000(0)   0.000000(0)   0.0000000(0)    0.0000000(0)
  H1B  0.032000(0)  0.032000(0)  0.032000(0)   0.000000(0)   0.0000000(0)    0.0000000(0)
